Circuit: * D:\Users\Javi\Desktop\BE-Arch_1\Draft1.asc

WARNING: Less than two connections to node S.  This node is used by A1.
Direct Newton iteration for .op point succeeded.

Date: Wed Sep 23 11:04:37 2020
Total elapsed time: 0.105 seconds.

tnom = 27
temp = 27
method = modified trap
totiter = 26548
traniter = 26545
tranpoints = 12014
accept = 8016
rejected = 3998
matrix size = 3
fillins = 0
solver = Normal
Matrix Compiler1: 50 bytes object code size  0.0/0.0/[0.0]
Matrix Compiler2: 135 bytes object code size  0.0/0.0/[0.0]

