Circuit: * C:\Users\Javi\GitHub\Architectures_Analogiques\BE_Arch_1\Draft3.asc

Direct Newton iteration for .op point succeeded.

Date: Wed Oct 21 14:32:30 2020
Total elapsed time: 0.414 seconds.

tnom = 27
temp = 27
method = modified trap
totiter = 80788
traniter = 80770
tranpoints = 40386
accept = 28307
rejected = 12079
matrix size = 11
fillins = 4
solver = Normal
Matrix Compiler1: 588 bytes object code size  0.3/0.2/[0.2]
Matrix Compiler2: 979 bytes object code size  0.3/0.3/[0.2]

