Circuit: * D:\Users\Javi\Desktop\BE-Arch_1\Draft2.asc

WARNING: Less than two connections to node N002.  This node is used by V1.
Direct Newton iteration for .op point succeeded.

Date: Wed Sep 23 12:23:34 2020
Total elapsed time: 1.803 seconds.

tnom = 27
temp = 27
method = modified trap
totiter = 138491
traniter = 138488
tranpoints = 50124
accept = 50108
rejected = 16
matrix size = 9
fillins = 0
solver = Normal
Matrix Compiler1: 188 bytes object code size  0.0/0.0/[0.0]
Matrix Compiler2: off  [0.0]/0.0/0.1

