Circuit: * D:\Users\Javi\GitHub\Architectures_Analogiques\BE_Arch_1\Draft4.asc

Early termination of direct N-R iteration.
Direct Newton iteration failed to find .op point.  (Use ".option noopiter" to skip.)
Starting Gmin stepping
Gmin = 10
vernier = 0.5
vernier = 0.25
vernier = 0.125
Gmin = 5.5165
vernier = 0.0625
vernier = 0.03125
vernier = 0.015625
vernier = 0.0078125
Gmin = 5.49501
vernier = 0.00390625
vernier = 0.00195313
vernier = 0.000976563
vernier = 0.000488281
Gmin = 5.50104
Gmin = 0
Gmin stepping succeeded in finding the operating point.


Date: Fri Oct 30 20:30:42 2020
Total elapsed time: 0.412 seconds.

tnom = 27
temp = 27
method = trap
totiter = 1392
traniter = 0
tranpoints = 0
accept = 0
rejected = 0
matrix size = 52
fillins = 138
solver = Normal
Matrix Compiler1:     503 opcodes
Matrix Compiler2: 6.91 KB object code size  0.8/0.8/[0.5]

