Circuit: * D:\Users\Javi\GitHub\Architectures_Analogiques\BE_Arch_1\Draft1.asc

WARNING: Less than two connections to node S.  This node is used by A1.
Direct Newton iteration for .op point succeeded.

Date: Mon Nov 09 19:10:15 2020
Total elapsed time: 0.319 seconds.

tnom = 27
temp = 27
method = modified trap
totiter = 26548
traniter = 26545
tranpoints = 12014
accept = 8016
rejected = 3998
matrix size = 3
fillins = 0
solver = Normal
Matrix Compiler1: off  [0.0]/0.0/0.0
Matrix Compiler2:      13 opcodes  0.0/[0.0]/0.0

