Circuit: * D:\Users\Javi\GitHub\Architectures_Analogiques\BE_Arch_1\Filtre_inter.asc

Early termination of direct N-R iteration.
Direct Newton iteration failed to find .op point.  (Use ".option noopiter" to skip.)
Starting Gmin stepping
Gmin = 10
vernier = 0.5
vernier = 0.25
vernier = 0.125
Gmin = 5.5165
vernier = 0.0625
vernier = 0.03125
vernier = 0.015625
vernier = 0.0078125
Gmin = 5.49501
vernier = 0.00390625
vernier = 0.00195313
vernier = 0.000976563
vernier = 0.000488281
Gmin = 5.50104
Gmin = 0
Gmin stepping failed

Starting source stepping with srcstepmethod=0
Source Step = 3.0303%
Source Step = 33.3333%
Source Step = 63.6364%
Source Step = 93.9394%
Source stepping succeeded in finding the operating point.


Date: Fri Oct 30 21:48:30 2020
Total elapsed time: 7.797 seconds.

tnom = 27
temp = 27
method = modified trap
totiter = 391789
traniter = 390103
tranpoints = 133333
accept = 92270
rejected = 41063
matrix size = 148
fillins = 621
solver = Normal
Thread vector: 8.0/4.5[3] 2.4/2.0[3] 3.5/2.0[2] 0.7/1.4[1]  2592/500
Matrix Compiler1: 59.03 KB object code size  6.5/3.3/[1.7]
Matrix Compiler2: 23.90 KB object code size  4.1/3.1/[1.1]

