Circuit: * D:\Users\Javi\GitHub\Architectures_Analogiques\BE_Arch_1\Filtre_inter.asc

WARNING: Node NC_04 is floating.

WARNING: Less than two connections to node NC_01.  This node is used by V1.
WARNING: Less than two connections to node VAM.  This node is used by B1.
WARNING: Less than two connections to node NC_04.  This node is used by C18.
Early termination of direct N-R iteration.
Direct Newton iteration failed to find .op point.  (Use ".option noopiter" to skip.)
Starting Gmin stepping
Gmin = 10
vernier = 0.5
vernier = 0.25
vernier = 0.125
Gmin = 5.5165
vernier = 0.0625
vernier = 0.03125
vernier = 0.015625
vernier = 0.0078125
Gmin = 5.49501
vernier = 0.00390625
vernier = 0.00195313
vernier = 0.000976563
vernier = 0.000488281
Gmin = 5.50104
Gmin = 0
Gmin stepping succeeded in finding the operating point.


Date: Tue Nov 10 12:32:25 2020
Total elapsed time: 13.444 seconds.

tnom = 27
temp = 27
method = modified trap
totiter = 377723
traniter = 376135
tranpoints = 115157
accept = 77793
rejected = 37364
matrix size = 219
fillins = 1547
solver = Normal
Thread vector: 11.8/8.4[4] 4.9/3.9[4] 7.3/4.3[4] 1.2/1.9[1]  2592/500
Matrix Compiler1: 184.36 KB object code size  21.1/10.5/[5.6]
Matrix Compiler2: 44.49 KB object code size  9.1/5.9/[2.5]

