Circuit: * D:\Users\Javi\GitHub\Architectures_Analogiques\BE_Arch_1\Filtre_inter.asc

Direct Newton iteration for .op point succeeded.

Date: Thu Oct 29 16:09:07 2020
Total elapsed time: 0.157 seconds.

tnom = 27
temp = 27
method = trap
totiter = 30
traniter = 0
tranpoints = 0
accept = 0
rejected = 0
matrix size = 53
fillins = 72
solver = Normal
Matrix Compiler1:     341 opcodes
Matrix Compiler2: 5.70 KB object code size
