Circuit: * C:\Users\Javi\GitHub\Architectures_Analogiques\BE_Arch_1\Filtre_inter.asc

WARNING: Less than two connections to node VCC.  This node is used by V2.
WARNING: Less than two connections to node -VCC.  This node is used by V4.

Date: Mon Oct 26 10:27:02 2020
Total elapsed time: 0.135 seconds.

tnom = 27
temp = 27
method = trap
totiter = 0
traniter = 0
tranpoints = 0
accept = 0
rejected = 0
matrix size = 10
fillins = 0
solver = Normal

