Circuit: * C:\Users\Javi\GitHub\Architectures_Analogiques\BE_Arch_1\TS.asc

Instance "m:u1:6": Length shorter than recommended for a level 2 MOSFET.
Instance "m:u1:5": Length shorter than recommended for a level 2 MOSFET.
Direct Newton iteration for .op point succeeded.

Date: Thu Oct 29 12:59:46 2020
Total elapsed time: 6.903 seconds.

tnom = 27
temp = 27
method = modified trap
totiter = 927433
traniter = 927412
tranpoints = 228070
accept = 171794
rejected = 56276
matrix size = 54
fillins = 42
solver = Normal
Matrix Compiler1: 4.49 KB object code size  2.0/1.0/[0.5]
Matrix Compiler2: 5.05 KB object code size  1.0/1.4/[0.5]

