Circuit: * D:\Users\Javi\GitHub\Architectures_Analogiques\BE_Arch_1\TS.asc

Instance "m:u1:6": Length shorter than recommended for a level 2 MOSFET.
Instance "m:u1:5": Length shorter than recommended for a level 2 MOSFET.
Direct Newton iteration for .op point succeeded.

Date: Mon Nov 09 18:47:35 2020
Total elapsed time: 4.071 seconds.

tnom = 27
temp = 27
method = modified trap
totiter = 823484
traniter = 823463
tranpoints = 184328
accept = 135955
rejected = 48373
matrix size = 54
fillins = 33
solver = Normal
Matrix Compiler1: 4.04 KB object code size  0.7/0.4/[0.1]
Matrix Compiler2: 4.89 KB object code size  0.3/0.4/[0.2]

