Circuit: * D:\Users\Javi\GitHub\Architectures_Analogiques\BE_Arch_1\TS.asc

Instance "m:u1:6": Length shorter than recommended for a level 2 MOSFET.
Instance "m:u1:5": Length shorter than recommended for a level 2 MOSFET.
Direct Newton iteration for .op point succeeded.

Date: Thu Oct 29 17:32:09 2020
Total elapsed time: 3.863 seconds.

tnom = 27
temp = 27
method = modified trap
totiter = 825812
traniter = 825791
tranpoints = 182528
accept = 134858
rejected = 47670
matrix size = 54
fillins = 33
solver = Normal
Matrix Compiler1: 4.04 KB object code size  0.7/0.3/[0.2]
Matrix Compiler2: 4.89 KB object code size  0.3/0.4/[0.2]

